<additional>
  <laneAreaDetector id="joinedS_5996498080_b1" lane="566475371#3_0" pos="0" endPos="-1" friendlyPos="true" file="detectors.out" freq="100000" />
  <laneAreaDetector id="joinedS_5996498080_b2" lane="566475371#3_1" pos="0" endPos="-1" friendlyPos="true" file="detectors.out" freq="100000" />
  <laneAreaDetector id="joinedS_5996498080_b3" lane="566475371#2_0" pos="0" endPos="-1" friendlyPos="true" file="detectors.out" freq="100000" />
  <laneAreaDetector id="joinedS_5996498080_b4" lane="566475371#2_1" pos="0" endPos="-1" friendlyPos="true" file="detectors.out" freq="100000" />
  <laneAreaDetector id="joinedS_5996498080_b5" lane="566475371#1_0" pos="73" endPos="-0.1" friendlyPos="true" file="detectors.out" freq="100000" />
  <laneAreaDetector id="joinedS_5996498080_b6" lane="566475371#1_1" pos="73" endPos="-0.1" friendlyPos="true" file="detectors.out" freq="100000" />
  <laneAreaDetector id="joinedS_5996498080_b7" lane="-626668696#7_0" pos="39" endPos="-1" friendlyPos="true" file="detectors.out" freq="100000" />
  <laneAreaDetector id="joinedS_5996498080_b8" lane="-626668696#7_1" pos="39" endPos="-1" friendlyPos="true" file="detectors.out" freq="100000" />
  <laneAreaDetector id="joinedS_5996498080_b9" lane="-626668696#7_2" pos="39" endPos="-1" friendlyPos="true" file="detectors.out" freq="100000" />
  <laneAreaDetector id="joinedS_5996498080_b10" lane="-626668696#7_3" pos="39" endPos="-1" friendlyPos="true" file="detectors.out" freq="100000" />
  <laneAreaDetector id="joinedS_5996498080_b11" lane="841484527#1_0" pos="26" endPos="-1" friendlyPos="true" file="detectors.out" freq="100000" />
  <laneAreaDetector id="joinedS_5996498080_b12" lane="626668696#0_0" pos="23" endPos="-1" friendlyPos="true" file="detectors.out" freq="100000" />
  <laneAreaDetector id="joinedS_5996498080_b13" lane="626668696#0_1" pos="23" endPos="-1" friendlyPos="true" file="detectors.out" freq="100000" />
  <laneAreaDetector id="joinedS_5996498080_b14" lane="626668696#0_2" pos="23" endPos="-1" friendlyPos="true" file="detectors.out" freq="100000" />
  <laneAreaDetector id="joinedS_5996498080_s1" lane="566475371#1_0" pos="0" endPos="20" friendlyPos="true" file="detectors.out" freq="100000" />
  <laneAreaDetector id="joinedS_5996498080_s2" lane="566475371#1_1" pos="0" endPos="20" friendlyPos="true" file="detectors.out" freq="100000" />
  <laneAreaDetector id="joinedS_5996498080_s3" lane="-643131004#1_0" pos="0" endPos="20" friendlyPos="true" file="detectors.out" freq="100000" />
  <laneAreaDetector id="joinedS_5996498080_s4" lane="-643131004#1_1" pos="0" endPos="20" friendlyPos="true" file="detectors.out" freq="100000" />
  <laneAreaDetector id="joinedS_5996498080_s5" lane="-643131004#1_2" pos="0" endPos="20" friendlyPos="true" file="detectors.out" freq="100000" />
  <laneAreaDetector id="joinedS_5996498080_s6" lane="-643131004#1_3" pos="0" endPos="20" friendlyPos="true" file="detectors.out" freq="100000" />
  <laneAreaDetector id="joinedS_5996498080_s7" lane="1089398064#1_0" pos="0" endPos="20" friendlyPos="true" file="detectors.out" freq="100000" />
  <laneAreaDetector id="joinedS_5996498080_s8" lane="642901742#0_0" pos="0" endPos="20" friendlyPos="true" file="detectors.out" freq="100000" />
  <laneAreaDetector id="joinedS_5996498080_s9" lane="642901742#0_1" pos="0" endPos="20" friendlyPos="true" file="detectors.out" freq="100000" />
  <laneAreaDetector id="joinedS_5996498080_s10" lane="642901742#0_2" pos="0" endPos="20" friendlyPos="true" file="detectors.out" freq="100000" />
  <laneAreaDetector id="joinedS_5996498080_n1" lane="566475371#3_0" pos="0" endPos="-1" friendlyPos="true" file="detectors.out" freq="100000" />
  <laneAreaDetector id="joinedS_5996498080_n2" lane="566475371#3_1" pos="0" endPos="-1" friendlyPos="true" file="detectors.out" freq="100000" />
  <laneAreaDetector id="joinedS_5996498080_n3" lane="566475371#2_0" pos="0" endPos="-1" friendlyPos="true" file="detectors.out" freq="100000" />
  <laneAreaDetector id="joinedS_5996498080_n4" lane="566475371#2_1" pos="0" endPos="-1" friendlyPos="true" file="detectors.out" freq="100000" />
  <laneAreaDetector id="joinedS_5996498080_n5" lane="566475371#1_0" pos="0" endPos="-1" friendlyPos="true" file="detectors.out" freq="100000" />
  <laneAreaDetector id="joinedS_5996498080_n6" lane="566475371#1_1" pos="0" endPos="-1" friendlyPos="true" file="detectors.out" freq="100000" />
  <laneAreaDetector id="joinedS_5996498080_n7" lane="-626668696#7_0" pos="0" endPos="-1" friendlyPos="true" file="detectors.out" freq="100000" />
  <laneAreaDetector id="joinedS_5996498080_n8" lane="-626668696#7_1" pos="0" endPos="-1" friendlyPos="true" file="detectors.out" freq="100000" />
  <laneAreaDetector id="joinedS_5996498080_n9" lane="-626668696#7_2" pos="0" endPos="-1" friendlyPos="true" file="detectors.out" freq="100000" />
  <laneAreaDetector id="joinedS_5996498080_n10" lane="-626668696#7_3" pos="0" endPos="-1" friendlyPos="true" file="detectors.out" freq="100000" />
  <laneAreaDetector id="joinedS_5996498080_n11" lane="-643131004#1_0" pos="0" endPos="-1" friendlyPos="true" file="detectors.out" freq="100000" />
  <laneAreaDetector id="joinedS_5996498080_n12" lane="-643131004#1_1" pos="0" endPos="-1" friendlyPos="true" file="detectors.out" freq="100000" />
  <laneAreaDetector id="joinedS_5996498080_n13" lane="-643131004#1_2" pos="0" endPos="-1" friendlyPos="true" file="detectors.out" freq="100000" />
  <laneAreaDetector id="joinedS_5996498080_n14" lane="-643131004#1_3" pos="0" endPos="-1" friendlyPos="true" file="detectors.out" freq="100000" />
  <laneAreaDetector id="joinedS_5996498080_n15" lane="841484527#1_0" pos="0" endPos="-1" friendlyPos="true" file="detectors.out" freq="100000" />
  <laneAreaDetector id="joinedS_5996498080_n16" lane="1089398064#1_0" pos="0" endPos="-1" friendlyPos="true" file="detectors.out" freq="100000" />
  <laneAreaDetector id="joinedS_5996498080_n17" lane="626668696#0_0" pos="0" endPos="-1" friendlyPos="true" file="detectors.out" freq="100000" />
  <laneAreaDetector id="joinedS_5996498080_n18" lane="626668696#0_1" pos="0" endPos="-1" friendlyPos="true" file="detectors.out" freq="100000" />
  <laneAreaDetector id="joinedS_5996498080_n19" lane="626668696#0_2" pos="0" endPos="-1" friendlyPos="true" file="detectors.out" freq="100000" />
  <laneAreaDetector id="joinedS_5996498080_n20" lane="642901742#1_0" pos="0" endPos="-1" friendlyPos="true" file="detectors.out" freq="100000" />
  <laneAreaDetector id="joinedS_5996498080_n21" lane="642901742#1_1" pos="0" endPos="-1" friendlyPos="true" file="detectors.out" freq="100000" />
  <laneAreaDetector id="joinedS_5996498080_n22" lane="642901742#1_2" pos="0" endPos="-1" friendlyPos="true" file="detectors.out" freq="100000" />
  <laneAreaDetector id="joinedS_5996498080_n23" lane="642901742#0_0" pos="0" endPos="-1" friendlyPos="true" file="detectors.out" freq="100000" />
  <laneAreaDetector id="joinedS_5996498080_n24" lane="642901742#0_1" pos="0" endPos="-1" friendlyPos="true" file="detectors.out" freq="100000" />
  <laneAreaDetector id="joinedS_5996498080_n25" lane="642901742#0_2" pos="0" endPos="-1" friendlyPos="true" file="detectors.out" freq="100000" />
  <laneAreaDetector id="joinedS_cluster_11012446359_b1" lane="-642910715#4_0" pos="47" endPos="-1" friendlyPos="true" file="detectors.out" freq="100000" />
  <laneAreaDetector id="joinedS_cluster_11012446359_b2" lane="-642910715#4_1" pos="47" endPos="-1" friendlyPos="true" file="detectors.out" freq="100000" />
  <laneAreaDetector id="joinedS_cluster_11012446359_b3" lane="-642910715#4_2" pos="47" endPos="-1" friendlyPos="true" file="detectors.out" freq="100000" />
  <laneAreaDetector id="joinedS_cluster_11012446359_b4" lane="1421892863#4_0" pos="0" endPos="-1" friendlyPos="true" file="detectors.out" freq="100000" />
  <laneAreaDetector id="joinedS_cluster_11012446359_b5" lane="1421892863#1_0" pos="40" endPos="-1" friendlyPos="true" file="detectors.out" freq="100000" />
  <laneAreaDetector id="joinedS_cluster_11012446359_b6" lane="643131004#0_0" pos="9" endPos="-1" friendlyPos="true" file="detectors.out" freq="100000" />
  <laneAreaDetector id="joinedS_cluster_11012446359_b7" lane="643131004#0_1" pos="9" endPos="-1" friendlyPos="true" file="detectors.out" freq="100000" />
  <laneAreaDetector id="joinedS_cluster_11012446359_b8" lane="643131004#0_2" pos="9" endPos="-1" friendlyPos="true" file="detectors.out" freq="100000" />
  <laneAreaDetector id="joinedS_cluster_11012446359_s1" lane="-642910715#5_0" pos="0" endPos="-1" friendlyPos="true" file="detectors.out" freq="100000" />
  <laneAreaDetector id="joinedS_cluster_11012446359_s2" lane="-642910715#5_1" pos="0" endPos="-1" friendlyPos="true" file="detectors.out" freq="100000" />
  <laneAreaDetector id="joinedS_cluster_11012446359_s3" lane="-642910715#5_2" pos="0" endPos="-1" friendlyPos="true" file="detectors.out" freq="100000" />
  <laneAreaDetector id="joinedS_cluster_11012446359_s4" lane="4293992#19_0" pos="0" endPos="20" friendlyPos="true" file="detectors.out" freq="100000" />
  <laneAreaDetector id="joinedS_cluster_11012446359_s5" lane="626668696#5_0" pos="0" endPos="20" friendlyPos="true" file="detectors.out" freq="100000" />
  <laneAreaDetector id="joinedS_cluster_11012446359_s6" lane="626668696#5_1" pos="0" endPos="20" friendlyPos="true" file="detectors.out" freq="100000" />
  <laneAreaDetector id="joinedS_cluster_11012446359_s7" lane="626668696#5_2" pos="0" endPos="20" friendlyPos="true" file="detectors.out" freq="100000" />
  <laneAreaDetector id="joinedS_cluster_11012446359_n1" lane="-642910715#4_0" pos="0" endPos="-1" friendlyPos="true" file="detectors.out" freq="100000" />
  <laneAreaDetector id="joinedS_cluster_11012446359_n2" lane="-642910715#4_1" pos="0" endPos="-1" friendlyPos="true" file="detectors.out" freq="100000" />
  <laneAreaDetector id="joinedS_cluster_11012446359_n3" lane="-642910715#4_2" pos="0" endPos="-1" friendlyPos="true" file="detectors.out" freq="100000" />
  <laneAreaDetector id="joinedS_cluster_11012446359_n4" lane="-642910715#5_0" pos="0" endPos="-1" friendlyPos="true" file="detectors.out" freq="100000" />
  <laneAreaDetector id="joinedS_cluster_11012446359_n5" lane="-642910715#5_1" pos="0" endPos="-1" friendlyPos="true" file="detectors.out" freq="100000" />
  <laneAreaDetector id="joinedS_cluster_11012446359_n6" lane="-642910715#5_2" pos="0" endPos="-1" friendlyPos="true" file="detectors.out" freq="100000" />
  <laneAreaDetector id="joinedS_cluster_11012446359_n7" lane="1421892863#4_0" pos="0" endPos="-1" friendlyPos="true" file="detectors.out" freq="100000" />
  <laneAreaDetector id="joinedS_cluster_11012446359_n8" lane="1421892863#1_0" pos="0" endPos="-1" friendlyPos="true" file="detectors.out" freq="100000" />
  <laneAreaDetector id="joinedS_cluster_11012446359_n9" lane="1421892863#0_0" pos="0" endPos="-1" friendlyPos="true" file="detectors.out" freq="100000" />
  <laneAreaDetector id="joinedS_cluster_11012446359_n10" lane="4293992#20_0" pos="0" endPos="-1" friendlyPos="true" file="detectors.out" freq="100000" />
  <laneAreaDetector id="joinedS_cluster_11012446359_n11" lane="4293992#19_0" pos="0" endPos="-1" friendlyPos="true" file="detectors.out" freq="100000" />
  <laneAreaDetector id="joinedS_cluster_11012446359_n12" lane="643131004#0_0" pos="0" endPos="-1" friendlyPos="true" file="detectors.out" freq="100000" />
  <laneAreaDetector id="joinedS_cluster_11012446359_n13" lane="643131004#0_1" pos="0" endPos="-1" friendlyPos="true" file="detectors.out" freq="100000" />
  <laneAreaDetector id="joinedS_cluster_11012446359_n14" lane="643131004#0_2" pos="0" endPos="-1" friendlyPos="true" file="detectors.out" freq="100000" />
  <laneAreaDetector id="joinedS_cluster_11012446359_n15" lane="626668696#5_0" pos="0" endPos="-1" friendlyPos="true" file="detectors.out" freq="100000" />
  <laneAreaDetector id="joinedS_cluster_11012446359_n16" lane="626668696#5_1" pos="0" endPos="-1" friendlyPos="true" file="detectors.out" freq="100000" />
  <laneAreaDetector id="joinedS_cluster_11012446359_n17" lane="626668696#5_2" pos="0" endPos="-1" friendlyPos="true" file="detectors.out" freq="100000" />
  <laneAreaDetector id="joinedS_9966559410_b1" lane="-642910715#9_0" pos="42" endPos="-1" friendlyPos="true" file="detectors.out" freq="100000" />
  <laneAreaDetector id="joinedS_9966559410_b2" lane="-642910715#9_1" pos="42" endPos="-1" friendlyPos="true" file="detectors.out" freq="100000" />
  <laneAreaDetector id="joinedS_9966559410_b3" lane="-642910715#9_2" pos="42" endPos="-1" friendlyPos="true" file="detectors.out" freq="100000" />
  <laneAreaDetector id="joinedS_9966559410_b4" lane="69114043#4_0" pos="0" endPos="-1" friendlyPos="true" file="detectors.out" freq="100000" />
  <laneAreaDetector id="joinedS_9966559410_b5" lane="69114043#2_0" pos="0" endPos="-1" friendlyPos="true" file="detectors.out" freq="100000" />
  <laneAreaDetector id="joinedS_9966559410_b6" lane="69114043#0_0" pos="67" endPos="-1" friendlyPos="true" file="detectors.out" freq="100000" />
  <laneAreaDetector id="joinedS_9966559410_b7" lane="642910715#5_0" pos="0" endPos="-1" friendlyPos="true" file="detectors.out" freq="100000" />
  <laneAreaDetector id="joinedS_9966559410_b8" lane="642910715#5_1" pos="0" endPos="-1" friendlyPos="true" file="detectors.out" freq="100000" />
  <laneAreaDetector id="joinedS_9966559410_b9" lane="642910715#5_2" pos="0" endPos="-1" friendlyPos="true" file="detectors.out" freq="100000" />
  <laneAreaDetector id="joinedS_9966559410_b10" lane="642910715#5_3" pos="0" endPos="-1" friendlyPos="true" file="detectors.out" freq="100000" />
  <laneAreaDetector id="joinedS_9966559410_b11" lane="642910715#2_0" pos="63" endPos="-1" friendlyPos="true" file="detectors.out" freq="100000" />
  <laneAreaDetector id="joinedS_9966559410_b12" lane="642910715#2_1" pos="63" endPos="-1" friendlyPos="true" file="detectors.out" freq="100000" />
  <laneAreaDetector id="joinedS_9966559410_b13" lane="642910715#2_2" pos="63" endPos="-1" friendlyPos="true" file="detectors.out" freq="100000" />
  <laneAreaDetector id="joinedS_9966559410_b14" lane="642910715#2_3" pos="63" endPos="-1" friendlyPos="true" file="detectors.out" freq="100000" />
  <laneAreaDetector id="joinedS_9966559410_s1" lane="-643134324#4_0" pos="0" endPos="20" friendlyPos="true" file="detectors.out" freq="100000" />
  <laneAreaDetector id="joinedS_9966559410_s2" lane="-643134324#4_1" pos="0" endPos="20" friendlyPos="true" file="detectors.out" freq="100000" />
  <laneAreaDetector id="joinedS_9966559410_s3" lane="-643134324#4_2" pos="0" endPos="20" friendlyPos="true" file="detectors.out" freq="100000" />
  <laneAreaDetector id="joinedS_9966559410_s4" lane="69114043#0_0" pos="0" endPos="20" friendlyPos="true" file="detectors.out" freq="100000" />
  <laneAreaDetector id="joinedS_9966559410_s5" lane="642910715#2_0" pos="0" endPos="20" friendlyPos="true" file="detectors.out" freq="100000" />
  <laneAreaDetector id="joinedS_9966559410_s6" lane="642910715#2_1" pos="0" endPos="20" friendlyPos="true" file="detectors.out" freq="100000" />
  <laneAreaDetector id="joinedS_9966559410_s7" lane="642910715#2_2" pos="0" endPos="20" friendlyPos="true" file="detectors.out" freq="100000" />
  <laneAreaDetector id="joinedS_9966559410_s8" lane="642910715#2_3" pos="0" endPos="20" friendlyPos="true" file="detectors.out" freq="100000" />
  <laneAreaDetector id="joinedS_9966559410_n1" lane="-642910715#9_0" pos="0" endPos="-1" friendlyPos="true" file="detectors.out" freq="100000" />
  <laneAreaDetector id="joinedS_9966559410_n2" lane="-642910715#9_1" pos="0" endPos="-1" friendlyPos="true" file="detectors.out" freq="100000" />
  <laneAreaDetector id="joinedS_9966559410_n3" lane="-642910715#9_2" pos="0" endPos="-1" friendlyPos="true" file="detectors.out" freq="100000" />
  <laneAreaDetector id="joinedS_9966559410_n4" lane="-643134324#4_0" pos="0" endPos="-1" friendlyPos="true" file="detectors.out" freq="100000" />
  <laneAreaDetector id="joinedS_9966559410_n5" lane="-643134324#4_1" pos="0" endPos="-1" friendlyPos="true" file="detectors.out" freq="100000" />
  <laneAreaDetector id="joinedS_9966559410_n6" lane="-643134324#4_2" pos="0" endPos="-1" friendlyPos="true" file="detectors.out" freq="100000" />
  <laneAreaDetector id="joinedS_9966559410_n7" lane="69114043#4_0" pos="0" endPos="-1" friendlyPos="true" file="detectors.out" freq="100000" />
  <laneAreaDetector id="joinedS_9966559410_n8" lane="69114043#2_0" pos="0" endPos="-1" friendlyPos="true" file="detectors.out" freq="100000" />
  <laneAreaDetector id="joinedS_9966559410_n9" lane="69114043#0_0" pos="0" endPos="-1" friendlyPos="true" file="detectors.out" freq="100000" />
  <laneAreaDetector id="joinedS_9966559410_n10" lane="642910715#5_0" pos="0" endPos="-1" friendlyPos="true" file="detectors.out" freq="100000" />
  <laneAreaDetector id="joinedS_9966559410_n11" lane="642910715#5_1" pos="0" endPos="-1" friendlyPos="true" file="detectors.out" freq="100000" />
  <laneAreaDetector id="joinedS_9966559410_n12" lane="642910715#5_2" pos="0" endPos="-1" friendlyPos="true" file="detectors.out" freq="100000" />
  <laneAreaDetector id="joinedS_9966559410_n13" lane="642910715#5_3" pos="0" endPos="-1" friendlyPos="true" file="detectors.out" freq="100000" />
  <laneAreaDetector id="joinedS_9966559410_n14" lane="642910715#2_0" pos="0" endPos="-1" friendlyPos="true" file="detectors.out" freq="100000" />
  <laneAreaDetector id="joinedS_9966559410_n15" lane="642910715#2_1" pos="0" endPos="-1" friendlyPos="true" file="detectors.out" freq="100000" />
  <laneAreaDetector id="joinedS_9966559410_n16" lane="642910715#2_2" pos="0" endPos="-1" friendlyPos="true" file="detectors.out" freq="100000" />
  <laneAreaDetector id="joinedS_9966559410_n17" lane="642910715#2_3" pos="0" endPos="-1" friendlyPos="true" file="detectors.out" freq="100000" />
  <laneAreaDetector id="joinedS_5996498052_b1" lane="374056161#1_0" pos="122" endPos="-1" friendlyPos="true" file="detectors.out" freq="100000" />
  <laneAreaDetector id="joinedS_5996498052_b2" lane="374056161#1_1" pos="122" endPos="-1" friendlyPos="true" file="detectors.out" freq="100000" />
  <laneAreaDetector id="joinedS_5996498052_b3" lane="-642913230#3_0" pos="34" endPos="-1" friendlyPos="true" file="detectors.out" freq="100000" />
  <laneAreaDetector id="joinedS_5996498052_b4" lane="-642913230#3_1" pos="34" endPos="-1" friendlyPos="true" file="detectors.out" freq="100000" />
  <laneAreaDetector id="joinedS_5996498052_b5" lane="-642913230#3_2" pos="34" endPos="-1" friendlyPos="true" file="detectors.out" freq="100000" />
  <laneAreaDetector id="joinedS_5996498052_b6" lane="-642913230#3_3" pos="34" endPos="-1" friendlyPos="true" file="detectors.out" freq="100000" />
  <laneAreaDetector id="joinedS_5996498052_b7" lane="365158944#9_0" pos="0" endPos="-1" friendlyPos="true" file="detectors.out" freq="100000" />
  <laneAreaDetector id="joinedS_5996498052_b8" lane="365158944#6_0" pos="10" endPos="-1" friendlyPos="true" file="detectors.out" freq="100000" />
  <laneAreaDetector id="joinedS_5996498052_b9" lane="643134324#2_0" pos="85" endPos="-1" friendlyPos="true" file="detectors.out" freq="100000" />
  <laneAreaDetector id="joinedS_5996498052_b10" lane="643134324#2_1" pos="85" endPos="-1" friendlyPos="true" file="detectors.out" freq="100000" />
  <laneAreaDetector id="joinedS_5996498052_b11" lane="643134324#2_2" pos="85" endPos="-1" friendlyPos="true" file="detectors.out" freq="100000" />
  <laneAreaDetector id="joinedS_5996498052_b12" lane="643134324#2_3" pos="85" endPos="-1" friendlyPos="true" file="detectors.out" freq="100000" />
  <laneAreaDetector id="joinedS_5996498052_s1" lane="374056161#1_0" pos="0" endPos="20" friendlyPos="true" file="detectors.out" freq="100000" />
  <laneAreaDetector id="joinedS_5996498052_s2" lane="374056161#1_1" pos="0" endPos="20" friendlyPos="true" file="detectors.out" freq="100000" />
  <laneAreaDetector id="joinedS_5996498052_s3" lane="-642913230#3_0" pos="0" endPos="20" friendlyPos="true" file="detectors.out" freq="100000" />
  <laneAreaDetector id="joinedS_5996498052_s4" lane="-642913230#3_1" pos="0" endPos="20" friendlyPos="true" file="detectors.out" freq="100000" />
  <laneAreaDetector id="joinedS_5996498052_s5" lane="-642913230#3_2" pos="0" endPos="20" friendlyPos="true" file="detectors.out" freq="100000" />
  <laneAreaDetector id="joinedS_5996498052_s6" lane="-642913230#3_3" pos="0" endPos="20" friendlyPos="true" file="detectors.out" freq="100000" />
  <laneAreaDetector id="joinedS_5996498052_s7" lane="365158944#4_0" pos="0" endPos="20" friendlyPos="true" file="detectors.out" freq="100000" />
  <laneAreaDetector id="joinedS_5996498052_s8" lane="642910715#8_0" pos="0" endPos="20" friendlyPos="true" file="detectors.out" freq="100000" />
  <laneAreaDetector id="joinedS_5996498052_s9" lane="642910715#8_1" pos="0" endPos="20" friendlyPos="true" file="detectors.out" freq="100000" />
  <laneAreaDetector id="joinedS_5996498052_s10" lane="642910715#8_2" pos="0" endPos="20" friendlyPos="true" file="detectors.out" freq="100000" />
  <laneAreaDetector id="joinedS_5996498052_s11" lane="642910715#8_3" pos="0" endPos="20" friendlyPos="true" file="detectors.out" freq="100000" />
  <laneAreaDetector id="joinedS_5996498052_n1" lane="374056161#1_0" pos="0" endPos="-1" friendlyPos="true" file="detectors.out" freq="100000" />
  <laneAreaDetector id="joinedS_5996498052_n2" lane="374056161#1_1" pos="0" endPos="-1" friendlyPos="true" file="detectors.out" freq="100000" />
  <laneAreaDetector id="joinedS_5996498052_n3" lane="-642913230#3_0" pos="0" endPos="-1" friendlyPos="true" file="detectors.out" freq="100000" />
  <laneAreaDetector id="joinedS_5996498052_n4" lane="-642913230#3_1" pos="0" endPos="-1" friendlyPos="true" file="detectors.out" freq="100000" />
  <laneAreaDetector id="joinedS_5996498052_n5" lane="-642913230#3_2" pos="0" endPos="-1" friendlyPos="true" file="detectors.out" freq="100000" />
  <laneAreaDetector id="joinedS_5996498052_n6" lane="-642913230#3_3" pos="0" endPos="-1" friendlyPos="true" file="detectors.out" freq="100000" />
  <laneAreaDetector id="joinedS_5996498052_n7" lane="365158944#9_0" pos="0" endPos="-1" friendlyPos="true" file="detectors.out" freq="100000" />
  <laneAreaDetector id="joinedS_5996498052_n8" lane="365158944#6_0" pos="0" endPos="-1" friendlyPos="true" file="detectors.out" freq="100000" />
  <laneAreaDetector id="joinedS_5996498052_n9" lane="365158944#5_0" pos="0" endPos="-1" friendlyPos="true" file="detectors.out" freq="100000" />
  <laneAreaDetector id="joinedS_5996498052_n10" lane="365158944#4_0" pos="0" endPos="-1" friendlyPos="true" file="detectors.out" freq="100000" />
  <laneAreaDetector id="joinedS_5996498052_n11" lane="643134324#2_0" pos="0" endPos="-1" friendlyPos="true" file="detectors.out" freq="100000" />
  <laneAreaDetector id="joinedS_5996498052_n12" lane="643134324#2_1" pos="0" endPos="-1" friendlyPos="true" file="detectors.out" freq="100000" />
  <laneAreaDetector id="joinedS_5996498052_n13" lane="643134324#2_2" pos="0" endPos="-1" friendlyPos="true" file="detectors.out" freq="100000" />
  <laneAreaDetector id="joinedS_5996498052_n14" lane="643134324#2_3" pos="0" endPos="-1" friendlyPos="true" file="detectors.out" freq="100000" />
  <laneAreaDetector id="joinedS_5996498052_n15" lane="642910715#8_0" pos="0" endPos="-1" friendlyPos="true" file="detectors.out" freq="100000" />
  <laneAreaDetector id="joinedS_5996498052_n16" lane="642910715#8_1" pos="0" endPos="-1" friendlyPos="true" file="detectors.out" freq="100000" />
  <laneAreaDetector id="joinedS_5996498052_n17" lane="642910715#8_2" pos="0" endPos="-1" friendlyPos="true" file="detectors.out" freq="100000" />
  <laneAreaDetector id="joinedS_5996498052_n18" lane="642910715#8_3" pos="0" endPos="-1" friendlyPos="true" file="detectors.out" freq="100000" />
  <laneAreaDetector id="joinedS_5996498057_b1" lane="27245904#2_0" pos="132" endPos="-1" friendlyPos="true" file="detectors.out" freq="100000" />
  <laneAreaDetector id="joinedS_5996498057_b2" lane="-1087767628#3_0" pos="158" endPos="-1" friendlyPos="true" file="detectors.out" freq="100000" />
  <laneAreaDetector id="joinedS_5996498057_b3" lane="-1087767628#3_1" pos="158" endPos="-1" friendlyPos="true" file="detectors.out" freq="100000" />
  <laneAreaDetector id="joinedS_5996498057_b4" lane="-1087767628#3_2" pos="158" endPos="-1" friendlyPos="true" file="detectors.out" freq="100000" />
  <laneAreaDetector id="joinedS_5996498057_b5" lane="-1087767628#3_3" pos="158" endPos="-1" friendlyPos="true" file="detectors.out" freq="100000" />
  <laneAreaDetector id="joinedS_5996498057_b6" lane="4294007#12_0" pos="122" endPos="-1" friendlyPos="true" file="detectors.out" freq="100000" />
  <laneAreaDetector id="joinedS_5996498057_b7" lane="642913230#1_0" pos="34" endPos="-1" friendlyPos="true" file="detectors.out" freq="100000" />
  <laneAreaDetector id="joinedS_5996498057_b8" lane="642913230#1_1" pos="34" endPos="-1" friendlyPos="true" file="detectors.out" freq="100000" />
  <laneAreaDetector id="joinedS_5996498057_b9" lane="642913230#1_2" pos="34" endPos="-1" friendlyPos="true" file="detectors.out" freq="100000" />
  <laneAreaDetector id="joinedS_5996498057_b10" lane="642913230#1_3" pos="34" endPos="-1" friendlyPos="true" file="detectors.out" freq="100000" />
  <laneAreaDetector id="joinedS_5996498057_s1" lane="27245904#2_0" pos="0" endPos="20" friendlyPos="true" file="detectors.out" freq="100000" />
  <laneAreaDetector id="joinedS_5996498057_s2" lane="-1087767628#3_0" pos="0" endPos="20" friendlyPos="true" file="detectors.out" freq="100000" />
  <laneAreaDetector id="joinedS_5996498057_s3" lane="-1087767628#3_1" pos="0" endPos="20" friendlyPos="true" file="detectors.out" freq="100000" />
  <laneAreaDetector id="joinedS_5996498057_s4" lane="-1087767628#3_2" pos="0" endPos="20" friendlyPos="true" file="detectors.out" freq="100000" />
  <laneAreaDetector id="joinedS_5996498057_s5" lane="-1087767628#3_3" pos="0" endPos="20" friendlyPos="true" file="detectors.out" freq="100000" />
  <laneAreaDetector id="joinedS_5996498057_s6" lane="4294007#12_0" pos="0" endPos="20" friendlyPos="true" file="detectors.out" freq="100000" />
  <laneAreaDetector id="joinedS_5996498057_s7" lane="642913230#1_0" pos="0" endPos="20" friendlyPos="true" file="detectors.out" freq="100000" />
  <laneAreaDetector id="joinedS_5996498057_s8" lane="642913230#1_1" pos="0" endPos="20" friendlyPos="true" file="detectors.out" freq="100000" />
  <laneAreaDetector id="joinedS_5996498057_s9" lane="642913230#1_2" pos="0" endPos="20" friendlyPos="true" file="detectors.out" freq="100000" />
  <laneAreaDetector id="joinedS_5996498057_s10" lane="642913230#1_3" pos="0" endPos="20" friendlyPos="true" file="detectors.out" freq="100000" />
  <laneAreaDetector id="joinedS_5996498057_n1" lane="27245904#2_0" pos="0" endPos="-1" friendlyPos="true" file="detectors.out" freq="100000" />
  <laneAreaDetector id="joinedS_5996498057_n2" lane="-1087767628#3_0" pos="0" endPos="-1" friendlyPos="true" file="detectors.out" freq="100000" />
  <laneAreaDetector id="joinedS_5996498057_n3" lane="-1087767628#3_1" pos="0" endPos="-1" friendlyPos="true" file="detectors.out" freq="100000" />
  <laneAreaDetector id="joinedS_5996498057_n4" lane="-1087767628#3_2" pos="0" endPos="-1" friendlyPos="true" file="detectors.out" freq="100000" />
  <laneAreaDetector id="joinedS_5996498057_n5" lane="-1087767628#3_3" pos="0" endPos="-1" friendlyPos="true" file="detectors.out" freq="100000" />
  <laneAreaDetector id="joinedS_5996498057_n6" lane="4294007#12_0" pos="0" endPos="-1" friendlyPos="true" file="detectors.out" freq="100000" />
  <laneAreaDetector id="joinedS_5996498057_n7" lane="642913230#1_0" pos="0" endPos="-1" friendlyPos="true" file="detectors.out" freq="100000" />
  <laneAreaDetector id="joinedS_5996498057_n8" lane="642913230#1_1" pos="0" endPos="-1" friendlyPos="true" file="detectors.out" freq="100000" />
  <laneAreaDetector id="joinedS_5996498057_n9" lane="642913230#1_2" pos="0" endPos="-1" friendlyPos="true" file="detectors.out" freq="100000" />
  <laneAreaDetector id="joinedS_5996498057_n10" lane="642913230#1_3" pos="0" endPos="-1" friendlyPos="true" file="detectors.out" freq="100000" />
</additional>