<routes>
    <vType id="car0" accel="0.8" decel="4.5" length="5.0" minGap="2.5" maxSpeed="55.56" sigma="0.5" tau="1.0" color="yellow" departSpeed="10" />
    <flow id="0" begin="0" end="3600" from="813587017#0" to="1087767628#1" probability="5" type="car0" />
</routes>