<?xml version="1.0" encoding="UTF-8"?>

<!-- generated on 2026-06-08T17:42:53.405548+01:00 by Eclipse SUMO netedit 1.25.0
<neteditConfiguration xmlns:xsi="http://www.w3.org/2001/XMLSchema-instance" xsi:noNamespaceSchemaLocation="http://sumo.dlr.de/xsd/neteditConfiguration.xsd">

    <input>
        <sumo-net-file value="/home/julesbompard/Documents/Projets/sumo-experiments/src/sumo_experiments/preset_networks/champs_elysees/champs_elysees.net.xml"/>
    </input>

    <output>
        <output-file value="/home/julesbompard/Documents/Projets/sumo-experiments/src/sumo_experiments/preset_networks/champs_elysees/champs_elysees.net.xml"/>
    </output>

    <processing>
        <geometry.min-radius.fix.railways value="false"/>
        <geometry.avoid-overlap value="false"/>
        <geometry.max-grade.fix value="false"/>
        <offset.disable-normalization value="true"/>
        <lefthand value="0"/>
    </processing>

    <junctions>
        <no-turnarounds value="true"/>
        <junctions.corner-detail value="5"/>
        <junctions.limit-turn-speed value="5.50"/>
        <rectangular-lane-cut value="0"/>
    </junctions>

    <pedestrian>
        <walkingareas value="0"/>
    </pedestrian>

</neteditConfiguration>
-->

<net version="1.20" junctionCornerDetail="5" limitTurnSpeed="5.50" avoidOverlap="0" xmlns:xsi="http://www.w3.org/2001/XMLSchema-instance" xsi:noNamespaceSchemaLocation="http://sumo.dlr.de/xsd/net_file.xsd">

    <location netOffset="-444209.57,-5409115.93" convBoundary="0.00,0.00,5479.37,6309.64" origBoundary="2.239780,48.832513,2.367863,48.889316" projParameter="+proj=utm +zone=31 +ellps=WGS84 +datum=WGS84 +units=m +no_defs"/>

    <type id="highway.primary" priority="12" numLanes="2" speed="27.78" disallow="tram rail_urban rail rail_electric rail_fast ship container cable_car subway aircraft wheelchair scooter drone" oneway="0"/>
    <type id="highway.residential" priority="3" numLanes="1" speed="13.89" disallow="tram rail_urban rail rail_electric rail_fast ship container cable_car subway aircraft wheelchair scooter drone" oneway="0"/>
    <type id="highway.secondary" priority="11" numLanes="1" speed="27.78" disallow="tram rail_urban rail rail_electric rail_fast ship container cable_car subway aircraft wheelchair scooter drone" oneway="0"/>
    <type id="highway.tertiary" priority="10" numLanes="1" speed="22.22" disallow="tram rail_urban rail rail_electric rail_fast ship container cable_car subway aircraft wheelchair scooter drone" oneway="0"/>
    <type id="highway.unclassified" priority="4" numLanes="1" speed="13.89" disallow="tram rail_urban rail rail_electric rail_fast ship container cable_car subway aircraft wheelchair scooter drone" oneway="0"/>

    <edge id=":11010103905_0" function="internal">
        <lane id=":11010103905_0_0" index="0" disallow="tram rail_urban rail rail_electric rail_fast ship container cable_car subway aircraft wheelchair scooter drone" speed="8.33" length="0.30" shape="4941.67,4098.03 4941.63,4097.73"/>
    </edge>
    <edge id=":12340573530_0" function="internal">
        <lane id=":12340573530_0_0" index="0" disallow="tram rail_urban rail rail_electric rail_fast ship container cable_car subway aircraft wheelchair scooter drone" speed="8.33" length="0.30" shape="4791.86,4031.12 4792.10,4031.30"/>
    </edge>
    <edge id=":13380361225_0" function="internal">
        <lane id=":13380361225_0_0" index="0" disallow="tram rail_urban rail rail_electric rail_fast ship container cable_car subway aircraft wheelchair scooter drone" speed="8.33" length="0.10" shape="4527.97,4220.37 4527.97,4220.37"/>
    </edge>
    <edge id=":13380361225_1" function="internal">
        <lane id=":13380361225_1_0" index="0" disallow="tram rail_urban rail rail_electric rail_fast ship container cable_car subway aircraft wheelchair scooter drone" speed="8.33" length="0.10" shape="4524.77,4220.21 4524.77,4220.21"/>
    </edge>
    <edge id=":1534568309_0" function="internal">
        <lane id=":1534568309_0_0" index="0" disallow="tram rail_urban rail rail_electric rail_fast ship container cable_car subway aircraft wheelchair scooter drone" speed="13.89" length="0.30" shape="4277.16,4472.02 4276.89,4472.15"/>
        <lane id=":1534568309_0_1" index="1" disallow="tram rail_urban rail rail_electric rail_fast ship container cable_car subway aircraft wheelchair scooter drone" speed="13.89" length="0.30" shape="4275.75,4469.15 4275.47,4469.28"/>
        <lane id=":1534568309_0_2" index="2" disallow="tram rail_urban rail rail_electric rail_fast ship container cable_car subway aircraft wheelchair scooter drone" speed="13.89" length="0.30" shape="4274.33,4466.28 4274.06,4466.41"/>
        <lane id=":1534568309_0_3" index="3" disallow="tram rail_urban rail rail_electric rail_fast ship container cable_car subway aircraft wheelchair scooter drone" speed="13.89" length="0.30" shape="4272.91,4463.41 4272.64,4463.54"/>
    </edge>
    <edge id=":1534568309_4" function="internal">
        <lane id=":1534568309_4_0" index="0" disallow="tram rail_urban rail rail_electric rail_fast ship container cable_car subway aircraft wheelchair scooter drone" speed="13.89" length="0.30" shape="4268.40,4454.93 4268.66,4454.80"/>
        <lane id=":1534568309_4_1" index="1" disallow="tram rail_urban rail rail_electric rail_fast ship container cable_car subway aircraft wheelchair scooter drone" speed="13.89" length="0.30" shape="4269.81,4457.80 4270.08,4457.67"/>
        <lane id=":1534568309_4_2" index="2" disallow="tram rail_urban rail rail_electric rail_fast ship container cable_car subway aircraft wheelchair scooter drone" speed="13.89" length="0.30" shape="4271.23,4460.67 4271.50,4460.54"/>
    </edge>
    <edge id=":1534568331_0" function="internal">
        <lane id=":1534568331_0_0" index="0" disallow="tram rail_urban rail rail_electric rail_fast ship container cable_car subway aircraft wheelchair scooter drone" speed="13.89" length="0.31" shape="4237.28,4491.68 4236.99,4491.82"/>
        <lane id=":1534568331_0_1" index="1" disallow="tram rail_urban rail rail_electric rail_fast ship container cable_car subway aircraft wheelchair scooter drone" speed="13.89" length="0.31" shape="4235.86,4488.81 4235.58,4488.95"/>
        <lane id=":1534568331_0_2" index="2" disallow="tram rail_urban rail rail_electric rail_fast ship container cable_car subway aircraft wheelchair scooter drone" speed="13.89" length="0.31" shape="4234.45,4485.94 4234.17,4486.07"/>
        <lane id=":1534568331_0_3" index="3" disallow="tram rail_urban rail rail_electric rail_fast ship container cable_car subway aircraft wheelchair scooter drone" speed="13.89" length="0.31" shape="4233.03,4483.07 4232.76,4483.20"/>
    </edge>
    <edge id=":1534568331_4" function="internal">
        <lane id=":1534568331_4_0" index="0" disallow="tram rail_urban rail rail_electric rail_fast ship container cable_car subway aircraft wheelchair scooter drone" speed="13.89" length="0.29" shape="4227.12,4471.71 4227.37,4471.59"/>
        <lane id=":1534568331_4_1" index="1" disallow="tram rail_urban rail rail_electric rail_fast ship container cable_car subway aircraft wheelchair scooter drone" speed="13.89" length="0.29" shape="4228.53,4474.59 4228.79,4474.46"/>
        <lane id=":1534568331_4_2" index="2" disallow="tram rail_urban rail rail_electric rail_fast ship container cable_car subway aircraft wheelchair scooter drone" speed="13.89" length="0.29" shape="4229.94,4477.46 4230.20,4477.33"/>
        <lane id=":1534568331_4_3" index="3" disallow="tram rail_urban rail rail_electric rail_fast ship container cable_car subway aircraft wheelchair scooter drone" speed="13.89" length="0.29" shape="4231.35,4480.33 4231.62,4480.20"/>
    </edge>
    <edge id=":1534568367_0" function="internal">
        <lane id=":1534568367_0_0" index="0" disallow="tram rail_urban rail rail_electric rail_fast ship container cable_car subway aircraft wheelchair scooter drone" speed="13.89" length="0.33" shape="4209.81,4505.22 4209.50,4505.38"/>
        <lane id=":1534568367_0_1" index="1" disallow="tram rail_urban rail rail_electric rail_fast ship container cable_car subway aircraft wheelchair scooter drone" speed="13.89" length="0.33" shape="4208.39,4502.36 4208.09,4502.51"/>
        <lane id=":1534568367_0_2" index="2" disallow="tram rail_urban rail rail_electric rail_fast ship container cable_car subway aircraft wheelchair scooter drone" speed="13.89" length="0.33" shape="4206.97,4499.49 4206.68,4499.64"/>
        <lane id=":1534568367_0_3" index="3" disallow="tram rail_urban rail rail_electric rail_fast ship container cable_car subway aircraft wheelchair scooter drone" speed="13.89" length="0.33" shape="4205.55,4496.63 4205.27,4496.76"/>
    </edge>
    <edge id=":1534568367_4" function="internal">
        <lane id=":1534568367_4_0" index="0" disallow="tram rail_urban rail rail_electric rail_fast ship container cable_car subway aircraft wheelchair scooter drone" speed="13.89" length="0.27" shape="4199.63,4485.27 4199.85,4485.16"/>
        <lane id=":1534568367_4_1" index="1" disallow="tram rail_urban rail rail_electric rail_fast ship container cable_car subway aircraft wheelchair scooter drone" speed="13.89" length="0.27" shape="4201.04,4488.14 4201.28,4488.03"/>
        <lane id=":1534568367_4_2" index="2" disallow="tram rail_urban rail rail_electric rail_fast ship container cable_car subway aircraft wheelchair scooter drone" speed="13.89" length="0.27" shape="4202.45,4491.02 4202.70,4490.89"/>
        <lane id=":1534568367_4_3" index="3" disallow="tram rail_urban rail rail_electric rail_fast ship container cable_car subway aircraft wheelchair scooter drone" speed="13.89" length="0.27" shape="4203.86,4493.89 4204.12,4493.76"/>
    </edge>
    <edge id=":1534591752_0" function="internal">
        <lane id=":1534591752_0_0" index="0" disallow="tram rail_urban rail rail_electric rail_fast ship container cable_car subway aircraft wheelchair scooter drone" speed="8.33" length="0.30" shape="5173.00,3985.09 5172.76,3984.91"/>
    </edge>
    <edge id=":1534591755_0" function="internal">
        <lane id=":1534591755_0_0" index="0" disallow="tram rail_urban rail rail_electric rail_fast ship container cable_car subway aircraft wheelchair scooter drone" speed="13.89" length="0.30" shape="5229.85,3994.22 5229.59,3994.35"/>
        <lane id=":1534591755_0_1" index="1" disallow="tram rail_urban rail rail_electric rail_fast ship container cable_car subway aircraft wheelchair scooter drone" speed="13.89" length="0.30" shape="5228.43,3991.35 5228.17,3991.48"/>
    </edge>
    <edge id=":1534591755_2" function="internal">
        <lane id=":1534591755_2_0" index="0" disallow="tram rail_urban rail rail_electric rail_fast ship container cable_car subway aircraft wheelchair scooter drone" speed="13.89" length="0.30" shape="5225.32,3985.75 5225.60,3985.61"/>
        <lane id=":1534591755_2_1" index="1" disallow="tram rail_urban rail rail_electric rail_fast ship container cable_car subway aircraft wheelchair scooter drone" speed="13.89" length="0.30" shape="5226.74,3988.61 5227.02,3988.48"/>
    </edge>
    <edge id=":1534591766_0" function="internal">
        <lane id=":1534591766_0_0" index="0" disallow="tram rail_urban rail rail_electric rail_fast ship container cable_car subway aircraft wheelchair scooter drone" speed="13.89" length="0.30" shape="5171.11,4024.27 5170.84,4024.40"/>
        <lane id=":1534591766_0_1" index="1" disallow="tram rail_urban rail rail_electric rail_fast ship container cable_car subway aircraft wheelchair scooter drone" speed="13.89" length="0.30" shape="5169.69,4021.40 5169.42,4021.53"/>
    </edge>
    <edge id=":1534591766_2" function="internal">
        <lane id=":1534591766_2_0" index="0" disallow="tram rail_urban rail rail_electric rail_fast ship container cable_car subway aircraft wheelchair scooter drone" speed="13.89" length="0.30" shape="5166.59,4015.79 5166.86,4015.66"/>
        <lane id=":1534591766_2_1" index="1" disallow="tram rail_urban rail rail_electric rail_fast ship container cable_car subway aircraft wheelchair scooter drone" speed="13.89" length="0.30" shape="5168.01,4018.66 5168.28,4018.53"/>
    </edge>
    <edge id=":1534591769_0" function="internal">
        <lane id=":1534591769_0_0" index="0" allow="bus bicycle" speed="8.33" length="7.36" shape="5219.72,4020.02 5221.55,4021.16 5223.00,4021.62 5224.46,4022.08 5226.28,4023.22"/>
        <lane id=":1534591769_0_1" index="1" disallow="tram rail_urban rail rail_electric rail_fast ship container cable_car subway aircraft wheelchair scooter drone" speed="8.33" length="7.36" shape="5217.72,4022.52 5219.55,4023.66 5221.00,4024.12 5222.46,4024.58 5224.28,4025.72"/>
    </edge>
    <edge id=":1534591932_0" function="internal">
        <lane id=":1534591932_0_0" index="0" disallow="tram rail_urban rail rail_electric rail_fast ship container cable_car subway aircraft wheelchair scooter drone" speed="13.89" length="0.28" shape="4618.96,4299.96 4618.71,4300.08"/>
        <lane id=":1534591932_0_1" index="1" disallow="tram rail_urban rail rail_electric rail_fast ship container cable_car subway aircraft wheelchair scooter drone" speed="13.89" length="0.28" shape="4617.54,4297.09 4617.29,4297.22"/>
        <lane id=":1534591932_0_2" index="2" disallow="tram rail_urban rail rail_electric rail_fast ship container cable_car subway aircraft wheelchair scooter drone" speed="13.89" length="0.28" shape="4616.13,4294.22 4615.87,4294.35"/>
    </edge>
    <edge id=":1534591932_3" function="internal">
        <lane id=":1534591932_3_0" index="0" disallow="tram rail_urban rail rail_electric rail_fast ship container cable_car subway aircraft wheelchair scooter drone" speed="13.89" length="0.31" shape="4610.18,4282.88 4610.47,4282.74"/>
        <lane id=":1534591932_3_1" index="1" disallow="tram rail_urban rail rail_electric rail_fast ship container cable_car subway aircraft wheelchair scooter drone" speed="13.89" length="0.31" shape="4611.60,4285.75 4611.89,4285.61"/>
        <lane id=":1534591932_3_2" index="2" disallow="tram rail_urban rail rail_electric rail_fast ship container cable_car subway aircraft wheelchair scooter drone" speed="13.89" length="0.31" shape="4613.03,4288.62 4613.30,4288.48"/>
        <lane id=":1534591932_3_3" index="3" disallow="tram rail_urban rail rail_electric rail_fast ship container cable_car subway aircraft wheelchair scooter drone" speed="13.89" length="0.31" shape="4614.45,4291.48 4614.72,4291.35"/>
    </edge>
    <edge id=":1937993349_0" function="internal">
        <lane id=":1937993349_0_0" index="0" disallow="tram rail_urban rail rail_electric rail_fast ship container cable_car subway aircraft wheelchair scooter drone" speed="8.33" length="0.10" shape="5202.79,3864.58 5202.79,3864.58"/>
    </edge>
    <edge id=":1962530964_0" function="internal">
        <lane id=":1962530964_0_0" index="0" allow="bus bicycle" speed="7.07" length="9.75" shape="4029.70,4600.49 4028.00,4598.69 4025.99,4597.80 4023.68,4597.83 4021.08,4598.77"/>
        <lane id=":1962530964_0_1" index="1" disallow="tram rail_urban rail rail_electric rail_fast ship container cable_car subway aircraft wheelchair scooter drone" speed="7.83" length="12.16" shape="4029.70,4600.49 4027.22,4597.52 4024.71,4595.76 4022.19,4595.23 4019.63,4595.91"/>
        <lane id=":1962530964_0_2" index="2" disallow="tram rail_urban rail rail_electric rail_fast ship container cable_car subway aircraft wheelchair scooter drone" speed="8.57" length="14.76" shape="4029.70,4600.49 4026.44,4596.34 4023.44,4593.72 4020.69,4592.62 4018.19,4593.06"/>
        <lane id=":1962530964_0_3" index="3" disallow="tram rail_urban rail rail_electric rail_fast ship container cable_car subway aircraft wheelchair scooter drone" speed="9.29" length="17.48" shape="4029.70,4600.49 4025.66,4595.17 4022.16,4591.67 4019.19,4590.02 4016.74,4590.20"/>
    </edge>
    <edge id=":1962530964_4" function="internal">
        <lane id=":1962530964_4_0" index="0" disallow="tram rail_urban rail rail_electric rail_fast ship container cable_car subway aircraft wheelchair scooter drone" speed="8.33" length="33.21" shape="4029.70,4600.49 4023.75,4592.37 4019.65,4586.67 4016.70,4580.49 4014.22,4570.89"/>
        <lane id=":1962530964_4_1" index="1" disallow="tram rail_urban rail rail_electric rail_fast ship container cable_car subway aircraft wheelchair scooter drone" speed="8.33" length="33.21" shape="4032.43,4598.82 4026.53,4590.72 4022.49,4585.02 4019.61,4578.84 4017.16,4569.27"/>
        <lane id=":1962530964_4_2" index="2" disallow="tram rail_urban rail rail_electric rail_fast ship container cable_car subway aircraft wheelchair scooter drone" speed="8.33" length="33.21" shape="4035.16,4597.14 4028.93,4589.34 4025.00,4583.62 4022.39,4577.28 4020.09,4567.65"/>
        <lane id=":1962530964_4_3" index="3" disallow="tram rail_urban rail rail_electric rail_fast ship container cable_car subway aircraft wheelchair scooter drone" speed="8.33" length="33.21" shape="4037.91,4595.46 4031.72,4587.68 4027.85,4581.96 4025.29,4575.63 4023.03,4566.03"/>
        <lane id=":1962530964_4_4" index="4" disallow="tram rail_urban rail rail_electric rail_fast ship container cable_car subway aircraft wheelchair scooter drone" speed="8.33" length="33.21" shape="4040.66,4593.78 4034.52,4586.02 4030.71,4580.30 4028.20,4573.98 4025.97,4564.41"/>
        <lane id=":1962530964_4_5" index="5" disallow="tram rail_urban rail rail_electric rail_fast ship container cable_car subway aircraft wheelchair scooter drone" speed="8.33" length="33.21" shape="4043.41,4592.09 4037.19,4584.38 4033.24,4578.70 4030.75,4572.38 4028.93,4562.77"/>
        <lane id=":1962530964_4_6" index="6" disallow="tram rail_urban rail rail_electric rail_fast ship container cable_car subway aircraft wheelchair scooter drone" speed="8.33" length="33.21" shape="4046.16,4590.41 4039.99,4582.72 4036.12,4577.02 4033.71,4570.70 4031.92,4561.12"/>
        <lane id=":1962530964_4_7" index="7" disallow="tram rail_urban rail rail_electric rail_fast ship container cable_car subway aircraft wheelchair scooter drone" speed="8.33" length="33.21" shape="4048.90,4588.72 4042.79,4581.05 4039.00,4575.35 4036.67,4569.02 4034.92,4559.47"/>
        <lane id=":1962530964_4_8" index="8" disallow="tram rail_urban rail rail_electric rail_fast ship container cable_car subway aircraft wheelchair scooter drone" speed="8.33" length="33.21" shape="4051.65,4587.04 4045.60,4579.38 4041.89,4573.68 4039.62,4567.35 4037.91,4557.82"/>
        <lane id=":1962530964_4_9" index="9" disallow="tram rail_urban rail rail_electric rail_fast ship container cable_car subway aircraft wheelchair scooter drone" speed="8.33" length="33.21" shape="4054.40,4585.35 4048.40,4577.71 4044.77,4572.00 4042.58,4565.67 4040.91,4556.17"/>
        <lane id=":1962530964_4_10" index="10" disallow="tram rail_urban rail rail_electric rail_fast ship container cable_car subway aircraft wheelchair scooter drone" speed="8.33" length="33.21" shape="4057.15,4583.67 4051.22,4576.07 4047.67,4570.38 4045.55,4564.06 4043.92,4554.62"/>
        <lane id=":1962530964_4_11" index="11" disallow="tram rail_urban rail rail_electric rail_fast ship container cable_car subway aircraft wheelchair scooter drone" speed="8.33" length="33.21" shape="4059.90,4581.98 4053.64,4574.65 4049.35,4569.18 4047.10,4563.09 4046.99,4553.91"/>
    </edge>
    <edge id=":1962530964_16" function="internal">
        <lane id=":1962530964_16_0" index="0" allow="bus bicycle" speed="7.30" length="9.25" shape="4010.96,4578.78 4012.82,4577.45 4013.98,4575.70 4014.45,4573.51 4014.22,4570.89"/>
        <lane id=":1962530964_16_1" index="1" disallow="tram rail_urban rail rail_electric rail_fast ship container cable_car subway aircraft wheelchair scooter drone" speed="8.96" length="14.34" shape="4012.41,4581.64 4015.17,4579.62 4016.88,4576.88 4017.55,4573.43 4017.16,4569.27"/>
        <lane id=":1962530964_16_2" index="2" disallow="tram rail_urban rail rail_electric rail_fast ship container cable_car subway aircraft wheelchair scooter drone" speed="10.35" length="19.43" shape="4013.85,4584.49 4017.53,4581.78 4019.79,4578.07 4020.65,4573.36 4020.09,4567.65"/>
        <lane id=":1962530964_16_3" index="3" disallow="tram rail_urban rail rail_electric rail_fast ship container cable_car subway aircraft wheelchair scooter drone" speed="11.11" length="24.53" shape="4015.30,4587.35 4019.88,4583.94 4022.70,4579.25 4023.74,4573.28 4023.03,4566.03"/>
        <lane id=":1962530964_16_4" index="4" disallow="tram rail_urban rail rail_electric rail_fast ship container cable_car subway aircraft wheelchair scooter drone" speed="11.11" length="27.44" shape="4015.30,4587.35 4021.17,4583.28 4024.91,4578.10 4026.51,4571.81 4025.97,4564.41"/>
        <lane id=":1962530964_16_5" index="5" disallow="tram rail_urban rail rail_electric rail_fast ship container cable_car subway aircraft wheelchair scooter drone" speed="11.11" length="30.23" shape="4015.30,4587.35 4022.16,4582.77 4026.71,4577.15 4028.97,4570.49 4028.93,4562.77"/>
        <lane id=":1962530964_16_6" index="6" disallow="tram rail_urban rail rail_electric rail_fast ship container cable_car subway aircraft wheelchair scooter drone" speed="11.11" length="33.34" shape="4015.30,4587.35 4023.47,4582.10 4028.97,4575.98 4031.79,4568.98 4031.92,4561.12"/>
        <lane id=":1962530964_16_7" index="7" disallow="tram rail_urban rail rail_electric rail_fast ship container cable_car subway aircraft wheelchair scooter drone" speed="11.11" length="36.50" shape="4015.30,4587.35 4024.79,4581.42 4031.22,4574.80 4034.60,4567.48 4034.92,4559.47"/>
        <lane id=":1962530964_16_8" index="8" disallow="tram rail_urban rail rail_electric rail_fast ship container cable_car subway aircraft wheelchair scooter drone" speed="11.11" length="39.69" shape="4015.30,4587.35 4026.11,4580.75 4033.48,4573.62 4037.41,4565.98 4037.91,4557.82"/>
        <lane id=":1962530964_16_9" index="9" disallow="tram rail_urban rail rail_electric rail_fast ship container cable_car subway aircraft wheelchair scooter drone" speed="11.11" length="42.91" shape="4015.30,4587.35 4027.42,4580.07 4035.73,4572.45 4040.23,4564.48 4040.91,4556.17"/>
    </edge>
    <edge id=":21292970_0" function="internal">
        <lane id=":21292970_0_0" index="0" disallow="tram rail_urban rail rail_electric rail_fast ship container cable_car subway aircraft wheelchair scooter drone" speed="6.46" length="9.03" shape="4057.57,4625.03 4055.25,4624.13 4053.22,4624.19 4051.47,4625.23 4049.99,4627.22"/>
    </edge>
    <edge id=":21292970_1" function="internal">
        <lane id=":21292970_1_0" index="0" disallow="tram rail_urban rail rail_electric rail_fast ship container cable_car subway aircraft wheelchair scooter drone" speed="8.33" length="13.93" shape="4057.57,4625.03 4052.85,4622.35 4049.71,4620.35 4046.81,4618.01 4042.85,4614.32"/>
        <lane id=":21292970_1_1" index="1" disallow="tram rail_urban rail rail_electric rail_fast ship container cable_car subway aircraft wheelchair scooter drone" speed="8.33" length="13.93" shape="4059.14,4622.24 4054.62,4619.68 4051.62,4617.77 4048.85,4615.53 4045.05,4612.01"/>
        <lane id=":21292970_1_2" index="2" disallow="tram rail_urban rail rail_electric rail_fast ship container cable_car subway aircraft wheelchair scooter drone" speed="8.33" length="13.93" shape="4060.71,4619.45 4056.40,4617.01 4053.53,4615.19 4050.88,4613.05 4047.26,4609.69"/>
        <lane id=":21292970_1_3" index="3" disallow="tram rail_urban rail rail_electric rail_fast ship container cable_car subway aircraft wheelchair scooter drone" speed="8.33" length="13.93" shape="4062.28,4616.66 4058.17,4614.34 4055.44,4612.60 4052.91,4610.58 4049.46,4607.37"/>
        <lane id=":21292970_1_4" index="4" disallow="tram rail_urban rail rail_electric rail_fast ship container cable_car subway aircraft wheelchair scooter drone" speed="8.33" length="13.93" shape="4063.85,4613.88 4059.95,4611.67 4057.35,4610.02 4054.95,4608.10 4051.67,4605.05"/>
        <lane id=":21292970_1_5" index="5" disallow="tram rail_urban rail rail_electric rail_fast ship container cable_car subway aircraft wheelchair scooter drone" speed="8.33" length="13.93" shape="4065.42,4611.09 4061.72,4609.00 4059.26,4607.44 4056.98,4605.62 4053.87,4602.73"/>
        <lane id=":21292970_1_6" index="6" disallow="tram rail_urban rail rail_electric rail_fast ship container cable_car subway aircraft wheelchair scooter drone" speed="8.33" length="13.93" shape="4066.99,4608.30 4063.50,4606.33 4061.16,4604.86 4059.02,4603.14 4056.08,4600.41"/>
        <lane id=":21292970_1_7" index="7" disallow="tram rail_urban rail rail_electric rail_fast ship container cable_car subway aircraft wheelchair scooter drone" speed="8.33" length="13.93" shape="4068.56,4605.51 4065.27,4603.65 4063.07,4602.27 4061.05,4600.66 4058.28,4598.09"/>
        <lane id=":21292970_1_8" index="8" disallow="tram rail_urban rail rail_electric rail_fast ship container cable_car subway aircraft wheelchair scooter drone" speed="8.33" length="13.93" shape="4070.14,4602.72 4067.05,4600.98 4064.98,4599.69 4063.08,4598.18 4060.49,4595.77"/>
        <lane id=":21292970_1_9" index="9" disallow="tram rail_urban rail rail_electric rail_fast ship container cable_car subway aircraft wheelchair scooter drone" speed="8.33" length="13.93" shape="4071.71,4599.94 4068.82,4598.31 4066.89,4597.11 4065.12,4595.70 4062.69,4593.45"/>
        <lane id=":21292970_1_10" index="10" disallow="tram rail_urban rail rail_electric rail_fast ship container cable_car subway aircraft wheelchair scooter drone" speed="8.33" length="13.93" shape="4073.28,4597.15 4070.60,4595.64 4068.80,4594.53 4067.15,4593.22 4064.90,4591.14"/>
        <lane id=":21292970_1_11" index="11" disallow="tram rail_urban rail rail_electric rail_fast ship container cable_car subway aircraft wheelchair scooter drone" speed="8.33" length="13.93" shape="4074.85,4594.36 4072.37,4592.97 4070.71,4591.94 4069.19,4590.74 4067.10,4588.82"/>
    </edge>
    <edge id=":21292970_13" function="internal">
        <lane id=":21292970_13_0" index="0" disallow="tram rail_urban rail rail_electric rail_fast ship container cable_car subway aircraft wheelchair scooter drone" speed="8.33" length="13.06" shape="4047.18,4625.71 4047.87,4623.19 4047.38,4620.46 4045.71,4617.50 4042.85,4614.32"/>
        <lane id=":21292970_13_1" index="1" disallow="tram rail_urban rail rail_electric rail_fast ship container cable_car subway aircraft wheelchair scooter drone" speed="8.33" length="15.05" shape="4047.18,4625.71 4048.60,4621.95 4048.72,4618.42 4047.54,4615.10 4045.05,4612.01"/>
        <lane id=":21292970_13_2" index="2" disallow="tram rail_urban rail rail_electric rail_fast ship container cable_car subway aircraft wheelchair scooter drone" speed="8.33" length="17.26" shape="4047.18,4625.71 4049.33,4620.71 4050.06,4616.38 4049.37,4612.70 4047.26,4609.69"/>
        <lane id=":21292970_13_3" index="3" disallow="tram rail_urban rail rail_electric rail_fast ship container cable_car subway aircraft wheelchair scooter drone" speed="8.33" length="19.62" shape="4047.18,4625.71 4050.05,4619.47 4051.39,4614.34 4051.20,4610.30 4049.46,4607.37"/>
        <lane id=":21292970_13_4" index="4" disallow="tram rail_urban rail rail_electric rail_fast ship container cable_car subway aircraft wheelchair scooter drone" speed="8.33" length="22.11" shape="4047.18,4625.71 4050.78,4618.23 4052.73,4612.29 4053.03,4607.90 4051.67,4605.05"/>
        <lane id=":21292970_13_5" index="5" disallow="tram rail_urban rail rail_electric rail_fast ship container cable_car subway aircraft wheelchair scooter drone" speed="8.33" length="24.70" shape="4047.18,4625.71 4051.51,4616.99 4054.07,4610.25 4054.86,4605.50 4053.87,4602.73"/>
        <lane id=":21292970_13_6" index="6" disallow="tram rail_urban rail rail_electric rail_fast ship container cable_car subway aircraft wheelchair scooter drone" speed="8.33" length="27.37" shape="4047.18,4625.71 4052.23,4615.75 4055.40,4608.21 4056.69,4603.10 4056.08,4600.41"/>
        <lane id=":21292970_13_7" index="7" disallow="tram rail_urban rail rail_electric rail_fast ship container cable_car subway aircraft wheelchair scooter drone" speed="8.33" length="30.13" shape="4047.18,4625.71 4052.96,4614.51 4056.74,4606.17 4058.51,4600.70 4058.28,4598.09"/>
        <lane id=":21292970_13_8" index="8" disallow="tram rail_urban rail rail_electric rail_fast ship container cable_car subway aircraft wheelchair scooter drone" speed="8.33" length="32.96" shape="4047.18,4625.71 4053.69,4613.27 4058.08,4604.13 4060.34,4598.30 4060.49,4595.77"/>
        <lane id=":21292970_13_9" index="9" disallow="tram rail_urban rail rail_electric rail_fast ship container cable_car subway aircraft wheelchair scooter drone" speed="8.33" length="35.88" shape="4047.18,4625.71 4054.41,4612.03 4059.41,4602.09 4062.17,4595.90 4062.69,4593.45"/>
    </edge>
    <edge id=":21660913_0" function="internal">
        <lane id=":21660913_0_0" index="0" disallow="tram rail_urban rail rail_electric rail_fast ship container cable_car subway aircraft wheelchair scooter drone" speed="3.65" length="4.67" shape="4125.18,4255.50 4126.10,4254.39 4126.93,4254.07 4127.69,4254.55 4128.36,4255.82"/>
    </edge>
    <edge id=":21660916_0" function="internal">
        <lane id=":21660916_0_0" index="0" disallow="tram rail_urban rail rail_electric rail_fast ship container cable_car subway aircraft wheelchair scooter drone" speed="8.33" length="0.31" shape="4121.13,4327.11 4121.10,4327.42"/>
    </edge>
    <edge id=":21660916_1" function="internal">
        <lane id=":21660916_1_0" index="0" disallow="tram rail_urban rail rail_electric rail_fast ship container cable_car subway aircraft wheelchair scooter drone" speed="3.65" length="2.34" shape="4121.13,4327.11 4120.21,4328.23 4119.37,4328.54"/>
    </edge>
    <edge id=":21660916_4" function="internal">