<?xml version="1.0" encoding="UTF-8"?>

<configuration xmlns:xsi="http://www.w3.org/2001/XMLSchema-instance" xsi:noNamespaceSchemaLocation="http://sumo.dlr.de/xsd/sumoConfiguration.xsd">

    <input>
        <net-file value="champs_elysees.net.xml"/>
        <route-files value="champs_elysees.rou.xml"/>
        <additional-files value="champs_elysees_detectors.add.xml"/>
    </input>

    <gui_only>
        <gui-settings-file value="settings.gui.xml"/>
    </gui_only>

</configuration>
