<additional>
    <!-- Added detectors -->
    <laneAreaDetector id="34_1" lane="43[0]_2" pos="0" endPos="20" freq="100000" file="detectors.out" />
	<laneAreaDetector id="34_2" lane="117_0" pos="108" endPos="128" freq="100000" file="detectors.out" />
	<laneAreaDetector id="34_3" lane="113_0" pos="60" endPos="80" freq="100000" file="detectors.out" />
	<laneAreaDetector id="34_4" lane="113_1" pos="60" endPos="80" freq="100000" file="detectors.out" />
	<laneAreaDetector id="34_5" lane="113_2" pos="60" endPos="80" freq="100000" file="detectors.out" />
	<laneAreaDetector id="34_6" lane="117_0" pos="0" endPos="20" freq="100000" file="detectors.out" />
	<laneAreaDetector id="34_7" lane="113_0" pos="0" endPos="20" freq="100000" file="detectors.out" />
	<laneAreaDetector id="34_8" lane="113_1" pos="0" endPos="20" freq="100000" file="detectors.out" />
	<laneAreaDetector id="34_9" lane="113_2" pos="0" endPos="20" freq="100000" file="detectors.out" />
	<laneAreaDetector id="34_10" lane="43[0]_2" pos="0" endPos="-1" freq="100000" file="detectors.out" />
	<laneAreaDetector id="34_11" lane="210_2" pos="184" endPos="364" freq="100000" file="detectors.out" />
	<laneAreaDetector id="34_12" lane="117_0" pos="0" endPos="-1" freq="100000" file="detectors.out" />
	<laneAreaDetector id="34_13" lane="113_0" pos="0" endPos="-1" freq="100000" file="detectors.out" />
	<laneAreaDetector id="34_14" lane="113_1" pos="0" endPos="-1" freq="100000" file="detectors.out" />
	<laneAreaDetector id="34_15" lane="113_2" pos="0" endPos="-1" freq="100000" file="detectors.out" />
	<laneAreaDetector id="27_1" lane="43[1]_0" pos="60" endPos="80" freq="100000" file="detectors.out" />
	<laneAreaDetector id="27_2" lane="43[1]_1" pos="60" endPos="80" freq="100000" file="detectors.out" />
	<laneAreaDetector id="27_3" lane="43[1]_2" pos="60" endPos="80" freq="100000" file="detectors.out" />
    <laneAreaDetector id="27_4" lane="31_0" pos="0" endPos="-1" freq="100000" file="detectors.out" />
	<laneAreaDetector id="27_5" lane="31_1" pos="0" endPos="-1" freq="100000" file="detectors.out" />
	<laneAreaDetector id="27_6" lane="31_2" pos="0" endPos="-1" freq="100000" file="detectors.out" />
	<laneAreaDetector id="27_7" lane="34_0" pos="38" endPos="58" freq="100000" file="detectors.out" />
	<laneAreaDetector id="27_8" lane="34_1" pos="38" endPos="58" freq="100000" file="detectors.out" />
	<laneAreaDetector id="27_9" lane="34_2" pos="38" endPos="58" freq="100000" file="detectors.out" />
    <laneAreaDetector id="27_10" lane="46_0" pos="46.8" endPos="66.8" freq="100000" file="detectors.out" />
	<laneAreaDetector id="27_11" lane="46_1" pos="46.8" endPos="66.8" freq="100000" file="detectors.out" />
	<laneAreaDetector id="27_12" lane="46_2" pos="46.8" endPos="66.8" freq="100000" file="detectors.out" />
    <laneAreaDetector id="27_13" lane="43[1]_0" pos="0" endPos="20" freq="100000" file="detectors.out" />
	<laneAreaDetector id="27_14" lane="43[1]_1" pos="0" endPos="20" freq="100000" file="detectors.out" />
	<laneAreaDetector id="27_15" lane="43[1]_2" pos="0" endPos="20" freq="100000" file="detectors.out" />
	<laneAreaDetector id="27_16" lane="202_0" pos="0" endPos="20" freq="100000" file="detectors.out" />
	<laneAreaDetector id="27_17" lane="202_1" pos="0" endPos="20" freq="100000" file="detectors.out" />
	<laneAreaDetector id="27_18" lane="202_2" pos="0" endPos="20" freq="100000" file="detectors.out" />
	<laneAreaDetector id="27_19" lane="116_0" pos="0" endPos="20" freq="100000" file="detectors.out" />
    <laneAreaDetector id="27_20" lane="43[1]_0" pos="0" endPos="-1" freq="100000" file="detectors.out" />
	<laneAreaDetector id="27_21" lane="43[1]_1" pos="0" endPos="-1" freq="100000" file="detectors.out" />
	<laneAreaDetector id="27_22" lane="43[1]_2" pos="0" endPos="-1" freq="100000" file="detectors.out" />
	<laneAreaDetector id="27_23" lane="31_0" pos="0" endPos="-1" freq="100000" file="detectors.out" />
	<laneAreaDetector id="27_24" lane="31_1" pos="0" endPos="-1" freq="100000" file="detectors.out" />
	<laneAreaDetector id="27_25" lane="31_2" pos="0" endPos="-1" freq="100000" file="detectors.out" />
	<laneAreaDetector id="27_26" lane="133_0" pos="0" endPos="-1" freq="100000" file="detectors.out" />
	<laneAreaDetector id="27_27" lane="165_0" pos="0" endPos="-1" freq="100000" file="detectors.out" />
	<laneAreaDetector id="27_28" lane="34_0" pos="0" endPos="-1" freq="100000" file="detectors.out" />
	<laneAreaDetector id="27_29" lane="34_1" pos="0" endPos="-1" freq="100000" file="detectors.out" />
	<laneAreaDetector id="27_30" lane="34_2" pos="0" endPos="-1" freq="100000" file="detectors.out" />
	<laneAreaDetector id="27_31" lane="202_0" pos="0" endPos="-1" freq="100000" file="detectors.out" />
	<laneAreaDetector id="27_32" lane="202_1" pos="0" endPos="-1" freq="100000" file="detectors.out" />
	<laneAreaDetector id="27_33" lane="202_2" pos="0" endPos="-1" freq="100000" file="detectors.out" />
	<laneAreaDetector id="27_34" lane="46_0" pos="0" endPos="-1" freq="100000" file="detectors.out" />
	<laneAreaDetector id="27_35" lane="46_1" pos="0" endPos="-1" freq="100000" file="detectors.out" />
	<laneAreaDetector id="27_36" lane="46_2" pos="0" endPos="-1" freq="100000" file="detectors.out" />
    <laneAreaDetector id="27_37" lane="116_0" pos="0" endPos="-1" freq="100000" file="detectors.out" />
    <laneAreaDetector id="1_1" lane="201_0" pos="211.3" endPos="231.3" freq="100000" file="detectors.out" />
	<laneAreaDetector id="1_2" lane="201_1" pos="211.3" endPos="231.3" freq="100000" file="detectors.out" />
	<laneAreaDetector id="1_3" lane="201_2" pos="211.3" endPos="231.3" freq="100000" file="detectors.out" />
	<laneAreaDetector id="1_4" lane="203[1]_0" pos="209.7" endPos="229.7" freq="100000" file="detectors.out" />
	<laneAreaDetector id="1_5" lane="203[1]_1" pos="209.7" endPos="229.7" freq="100000" file="detectors.out" />
	<laneAreaDetector id="1_6" lane="203[1]_2" pos="209.7" endPos="229.7" freq="100000" file="detectors.out" />
	<laneAreaDetector id="1_7" lane="1b_0" pos="40.4" endPos="60.4" freq="100000" file="detectors.out" />
	<laneAreaDetector id="1_8" lane="1b_1" pos="40.4" endPos="60.4" freq="100000" file="detectors.out" />
	<laneAreaDetector id="1_9" lane="2_0" pos="19.6" endPos="39.6" freq="100000" file="detectors.out" />
	<laneAreaDetector id="1_10" lane="2_1" pos="19.6" endPos="39.6" freq="100000" file="detectors.out" />
	<laneAreaDetector id="1_11" lane="2_2" pos="19.6" endPos="39.6" freq="100000" file="detectors.out" />
	<laneAreaDetector id="1_12" lane="201_0" pos="0" endPos="20" freq="100000" file="detectors.out" />
	<laneAreaDetector id="1_13" lane="201_1" pos="0" endPos="20" freq="100000" file="detectors.out" />
	<laneAreaDetector id="1_14" lane="201_2" pos="0" endPos="20" freq="100000" file="detectors.out" />
	<laneAreaDetector id="1_15" lane="203[1]_0" pos="0" endPos="20" freq="100000" file="detectors.out" />
	<laneAreaDetector id="1_16" lane="203[1]_1" pos="0" endPos="20" freq="100000" file="detectors.out" />
	<laneAreaDetector id="1_17" lane="203[1]_2" pos="0" endPos="20" freq="100000" file="detectors.out" />
	<laneAreaDetector id="1_18" lane="122_0" pos="0" endPos="20" freq="100000" file="detectors.out" />
	<laneAreaDetector id="1_19" lane="122_1" pos="0" endPos="20" freq="100000" file="detectors.out" />
	<laneAreaDetector id="1_20" lane="122_2" pos="0" endPos="20" freq="100000" file="detectors.out" />
	<laneAreaDetector id="1_21" lane="201_0" pos="0" endPos="-1" freq="100000" file="detectors.out" />
	<laneAreaDetector id="1_22" lane="201_1" pos="0" endPos="-1" freq="100000" file="detectors.out" />
	<laneAreaDetector id="1_23" lane="201_2" pos="0" endPos="-1" freq="100000" file="detectors.out" />
	<laneAreaDetector id="1_24" lane="203[1]_0" pos="0" endPos="-1" freq="100000" file="detectors.out" />
	<laneAreaDetector id="1_25" lane="203[1]_1" pos="0" endPos="-1" freq="100000" file="detectors.out" />
	<laneAreaDetector id="1_26" lane="203[1]_2" pos="0" endPos="-1" freq="100000" file="detectors.out" />
	<laneAreaDetector id="1_27" lane="1b_0" pos="0" endPos="-1" freq="100000" file="detectors.out" />
	<laneAreaDetector id="1_28" lane="1b_1" pos="0" endPos="-1" freq="100000" file="detectors.out" />
	<laneAreaDetector id="1_29" lane="2_0" pos="0" endPos="-1" freq="100000" file="detectors.out" />
	<laneAreaDetector id="1_30" lane="2_1" pos="0" endPos="-1" freq="100000" file="detectors.out" />
	<laneAreaDetector id="1_31" lane="2_2" pos="0" endPos="-1" freq="100000" file="detectors.out" />
	<laneAreaDetector id="1_32" lane="3_0" pos="0" endPos="-1" freq="100000" file="detectors.out" />
	<laneAreaDetector id="1_33" lane="3_1" pos="0" endPos="-1" freq="100000" file="detectors.out" />
	<laneAreaDetector id="1_34" lane="122_0" pos="0" endPos="-1" freq="100000" file="detectors.out" />
	<laneAreaDetector id="1_35" lane="122_1" pos="0" endPos="-1" freq="100000" file="detectors.out" />
	<laneAreaDetector id="1_36" lane="122_2" pos="0" endPos="-1" freq="100000" file="detectors.out" />
	<laneAreaDetector id="78_1" lane="203[0]_0" pos="381.1" endPos="401.1" freq="100000" file="detectors.out" />
	<laneAreaDetector id="78_2" lane="203[0]_1" pos="381.1" endPos="401.1" freq="100000" file="detectors.out" />
	<laneAreaDetector id="78_3" lane="203[0]_2" pos="381.1" endPos="401.1" freq="100000" file="detectors.out" />
	<laneAreaDetector id="78_4" lane="204a[0]_0" pos="170.2" endPos="190.2" freq="100000" file="detectors.out" />
	<laneAreaDetector id="78_5" lane="204a[0]_1" pos="170.2" endPos="190.2" freq="100000" file="detectors.out" />
	<laneAreaDetector id="78_6" lane="204a[0]_2" pos="170.2" endPos="190.2" freq="100000" file="detectors.out" />
	<laneAreaDetector id="78_7" lane="55b_0" pos="0" endPos="-1" freq="100000" file="detectors.out" />
	<laneAreaDetector id="78_8" lane="55b_1" pos="0" endPos="-1" freq="100000" file="detectors.out" />
	<laneAreaDetector id="78_9" lane="55b_2" pos="0" endPos="-1" freq="100000" file="detectors.out" />
	<laneAreaDetector id="78_10" lane="121_0" pos="673.6" endPos="693.6" freq="100000" file="detectors.out" />
	<laneAreaDetector id="78_11" lane="204a[0]_0" pos="0" endPos="20" freq="100000" file="detectors.out" />
	<laneAreaDetector id="78_12" lane="204a[0]_1" pos="0" endPos="20" freq="100000" file="detectors.out" />
	<laneAreaDetector id="78_13" lane="204a[0]_2" pos="0" endPos="20" freq="100000" file="detectors.out" />
	<laneAreaDetector id="78_14" lane="203[0]_0" pos="200" endPos="401.1" freq="100000" file="detectors.out" />
	<laneAreaDetector id="78_15" lane="203[0]_1" pos="200" endPos="401.1" freq="100000" file="detectors.out" />
	<laneAreaDetector id="78_16" lane="203[0]_2" pos="200" endPos="401.1" freq="100000" file="detectors.out" />
	<laneAreaDetector id="78_17" lane="204a[0]_0" pos="0" endPos="-1" freq="100000" file="detectors.out" />
	<laneAreaDetector id="78_18" lane="204a[0]_1" pos="0" endPos="-1" freq="100000" file="detectors.out" />
	<laneAreaDetector id="78_19" lane="204a[0]_2" pos="0" endPos="-1" freq="100000" file="detectors.out" />
	<laneAreaDetector id="52_1" lane="69_0" pos="116" endPos="136" freq="100000" file="detectors.out" />
	<laneAreaDetector id="52_2" lane="69_1" pos="116" endPos="136" freq="100000" file="detectors.out" />
	<laneAreaDetector id="52_3" lane="171_0" pos="153.8" endPos="173.8" freq="100000" file="detectors.out" />
	<laneAreaDetector id="52_4" lane="69_0" pos="0" endPos="20" freq="100000" file="detectors.out" />
	<laneAreaDetector id="52_5" lane="69_1" pos="0" endPos="20" freq="100000" file="detectors.out" />
	<laneAreaDetector id="52_6" lane="171_0" pos="0" endPos="20" freq="100000" file="detectors.out" />
	<laneAreaDetector id="52_7" lane="69_0" pos="0" endPos="-1" freq="100000" file="detectors.out" />
	<laneAreaDetector id="52_8" lane="69_1" pos="0" endPos="-1" freq="100000" file="detectors.out" />
	<laneAreaDetector id="52_9" lane="171_0" pos="0" endPos="-1" freq="100000" file="detectors.out" />
	<laneAreaDetector id="15_1" lane="72[1]_0" pos="0" endPos="-1" freq="100000" file="detectors.out" />
	<laneAreaDetector id="15_2" lane="72[1]_1" pos="0" endPos="-1" freq="100000" file="detectors.out" />
	<laneAreaDetector id="15_3" lane="191_0" pos="148" endPos="168" freq="100000" file="detectors.out" />
	<laneAreaDetector id="15_4" lane="18_0" pos="6.1" endPos="26.1" freq="100000" file="detectors.out" />
	<laneAreaDetector id="15_5" lane="18_1" pos="6.1" endPos="26.1" freq="100000" file="detectors.out" />
	<laneAreaDetector id="15_6" lane="72[0]_0" pos="0" endPos="20" freq="100000" file="detectors.out" />
	<laneAreaDetector id="15_7" lane="72[0]_1" pos="0" endPos="20" freq="100000" file="detectors.out" />
	<laneAreaDetector id="15_8" lane="72[0]_2" pos="0" endPos="20" freq="100000" file="detectors.out" />
	<laneAreaDetector id="15_9" lane="74_0" pos="0" endPos="20" freq="100000" file="detectors.out" />
	<laneAreaDetector id="15_10" lane="181_0" pos="0" endPos="20" freq="100000" file="detectors.out" />
	<laneAreaDetector id="15_11" lane="181_1" pos="0" endPos="20" freq="100000" file="detectors.out" />
	<laneAreaDetector id="15_12" lane="191_0" pos="0" endPos="20" freq="100000" file="detectors.out" />
	<laneAreaDetector id="15_13" lane="72[0]_0" pos="0" endPos="-1" freq="100000" file="detectors.out" />
	<laneAreaDetector id="15_14" lane="72[0]_1" pos="0" endPos="-1" freq="100000" file="detectors.out" />
	<laneAreaDetector id="15_15" lane="72[0]_2" pos="0" endPos="-1" freq="100000" file="detectors.out" />
	<laneAreaDetector id="15_16" lane="72[1]_0" pos="0" endPos="-1" freq="100000" file="detectors.out" />
	<laneAreaDetector id="15_17" lane="72[1]_1" pos="0" endPos="-1" freq="100000" file="detectors.out" />
	<laneAreaDetector id="15_18" lane="74_0" pos="67" endPos="-1" freq="100000" file="detectors.out" />
	<laneAreaDetector id="15_19" lane="181_0" pos="0" endPos="-1" freq="100000" file="detectors.out" />
	<laneAreaDetector id="15_20" lane="181_1" pos="0" endPos="-1" freq="100000" file="detectors.out" />
	<laneAreaDetector id="15_21" lane="18_0" pos="0" endPos="-1" freq="100000" file="detectors.out" />
	<laneAreaDetector id="15_22" lane="18_1" pos="0" endPos="-1" freq="100000" file="detectors.out" />
	<laneAreaDetector id="15_23" lane="191_0" pos="0" endPos="-1" freq="100000" file="detectors.out" />
	<laneAreaDetector id="15_24" lane="72[0]_0" pos="150" endPos="170" freq="100000" file="detectors.out" />
	<laneAreaDetector id="15_25" lane="72[0]_1" pos="150" endPos="170" freq="100000" file="detectors.out" />
	<laneAreaDetector id="15_26" lane="72[0]_2" pos="150" endPos="170" freq="100000" file="detectors.out" />
	<laneAreaDetector id="9_1" lane="12_0" pos="38.6" endPos="58.6" freq="100000" file="detectors.out" />
	<laneAreaDetector id="9_2" lane="12_1" pos="38.6" endPos="58.6" freq="100000" file="detectors.out" />
	<laneAreaDetector id="9_3" lane="12_2" pos="38.6" endPos="58.6" freq="100000" file="detectors.out" />
	<laneAreaDetector id="9_4" lane="71_0" pos="41.2" endPos="61.2" freq="100000" file="detectors.out" />
	<laneAreaDetector id="9_5" lane="71_1" pos="41.2" endPos="61.2" freq="100000" file="detectors.out" />
	<laneAreaDetector id="9_6" lane="71_2" pos="41.2" endPos="61.2" freq="100000" file="detectors.out" />
	<laneAreaDetector id="9_7" lane="11_0" pos="13.9" endPos="33.9" freq="100000" file="detectors.out" />
	<laneAreaDetector id="9_8" lane="11_1" pos="13.9" endPos="33.9" freq="100000" file="detectors.out" />
	<laneAreaDetector id="9_9" lane="11_2" pos="13.9" endPos="33.9" freq="100000" file="detectors.out" />
	<laneAreaDetector id="9_10" lane="85_0" pos="313.1" endPos="333.1" freq="100000" file="detectors.out" />
	<laneAreaDetector id="9_11" lane="85_1" pos="313.1" endPos="333.1" freq="100000" file="detectors.out" />
	<laneAreaDetector id="9_12" lane="85_2" pos="313.1" endPos="333.1" freq="100000" file="detectors.out" />
	<laneAreaDetector id="9_13" lane="83_0" pos="0" endPos="20" freq="100000" file="detectors.out" />
	<laneAreaDetector id="9_14" lane="17_0" pos="0" endPos="20" freq="100000" file="detectors.out" />
	<laneAreaDetector id="9_15" lane="17_1" pos="0" endPos="20" freq="100000" file="detectors.out" />
	<laneAreaDetector id="9_16" lane="68_0" pos="0" endPos="20" freq="100000" file="detectors.out" />
	<laneAreaDetector id="9_17" lane="68_1" pos="0" endPos="20" freq="100000" file="detectors.out" />
	<laneAreaDetector id="9_18" lane="12_0" pos="0" endPos="-1" freq="100000" file="detectors.out" />
	<laneAreaDetector id="9_19" lane="12_1" pos="0" endPos="-1" freq="100000" file="detectors.out" />
	<laneAreaDetector id="9_20" lane="12_2" pos="0" endPos="-1" freq="100000" file="detectors.out" />
	<laneAreaDetector id="9_21" lane="83_0" pos="0" endPos="-1" freq="100000" file="detectors.out" />
	<laneAreaDetector id="9_22" lane="71_0" pos="0" endPos="-1" freq="100000" file="detectors.out" />
	<laneAreaDetector id="9_23" lane="71_1" pos="0" endPos="-1" freq="100000" file="detectors.out" />
	<laneAreaDetector id="9_24" lane="71_2" pos="0" endPos="-1" freq="100000" file="detectors.out" />
	<laneAreaDetector id="9_25" lane="17_0" pos="0" endPos="-1" freq="100000" file="detectors.out" />
	<laneAreaDetector id="9_26" lane="17_1" pos="0" endPos="-1" freq="100000" file="detectors.out" />
	<laneAreaDetector id="9_27" lane="11_0" pos="0" endPos="-1" freq="100000" file="detectors.out" />
	<laneAreaDetector id="9_28" lane="11_1" pos="0" endPos="-1" freq="100000" file="detectors.out" />
	<laneAreaDetector id="9_29" lane="11_2" pos="0" endPos="-1" freq="100000" file="detectors.out" />
	<laneAreaDetector id="9_30" lane="68_0" pos="0" endPos="-1" freq="100000" file="detectors.out" />
	<laneAreaDetector id="9_31" lane="68_1" pos="0" endPos="-1" freq="100000" file="detectors.out" />
	<laneAreaDetector id="9_32" lane="85_0" pos="133.1" endPos="333.1" freq="100000" file="detectors.out" />
	<laneAreaDetector id="9_33" lane="85_1" pos="133.1" endPos="333.1" freq="100000" file="detectors.out" />
	<laneAreaDetector id="9_34" lane="85_2" pos="133.1" endPos="333.1" freq="100000" file="detectors.out" />
	<laneAreaDetector id="12_1" lane="104_0" pos="17.8" endPos="37.8" freq="100000" file="detectors.out" />
	<laneAreaDetector id="12_2" lane="104_1" pos="17.8" endPos="37.8" freq="100000" file="detectors.out" />
	<laneAreaDetector id="12_3" lane="15_0" pos="71.4" endPos="91.4" freq="100000" file="detectors.out" />
	<laneAreaDetector id="12_4" lane="103_0" pos="117.85" endPos="137.85" freq="100000" file="detectors.out" />
	<laneAreaDetector id="12_5" lane="103_1" pos="117.85" endPos="137.85" freq="100000" file="detectors.out" />
	<laneAreaDetector id="12_6" lane="103_0" pos="0" endPos="20" freq="100000" file="detectors.out" />
	<laneAreaDetector id="12_7" lane="103_1" pos="0" endPos="20" freq="100000" file="detectors.out" />
	<laneAreaDetector id="12_8" lane="15_0" pos="0" endPos="20" freq="100000" file="detectors.out" />
	<laneAreaDetector id="12_9" lane="13_0" pos="0" endPos="20" freq="100000" file="detectors.out" />
	<laneAreaDetector id="12_10" lane="104_0" pos="0" endPos="-1" freq="100000" file="detectors.out" />
	<laneAreaDetector id="12_11" lane="104_1" pos="0" endPos="-1" freq="100000" file="detectors.out" />
	<laneAreaDetector id="12_12" lane="15_0" pos="0" endPos="-1" freq="100000" file="detectors.out" />
	<laneAreaDetector id="12_13" lane="103_0" pos="0" endPos="-1" freq="100000" file="detectors.out" />
	<laneAreaDetector id="12_14" lane="103_1" pos="0" endPos="-1" freq="100000" file="detectors.out" />
	<laneAreaDetector id="12_15" lane="13_0" pos="0" endPos="-1" freq="100000" file="detectors.out" />
	<laneAreaDetector id="63_1" lane="188_0" pos="64.3" endPos="84.3" freq="100000" file="detectors.out" />
	<laneAreaDetector id="63_2" lane="153_0" pos="376" endPos="396" freq="100000" file="detectors.out" />
	<laneAreaDetector id="63_3" lane="88_0" pos="30.8" endPos="50.8" freq="100000" file="detectors.out" />
	<laneAreaDetector id="63_4" lane="188_0" pos="0" endPos="20" freq="100000" file="detectors.out" />
	<laneAreaDetector id="63_5" lane="153_0" pos="0" endPos="20" freq="100000" file="detectors.out" />
	<laneAreaDetector id="63_6" lane="88_0" pos="0" endPos="20" freq="100000" file="detectors.out" />
	<laneAreaDetector id="63_7" lane="188_0" pos="0" endPos="-1" freq="100000" file="detectors.out" />
	<laneAreaDetector id="63_8" lane="153_0" pos="196" endPos="-1" freq="100000" file="detectors.out" />
	<laneAreaDetector id="63_9" lane="88_0" pos="0" endPos="-1" freq="100000" file="detectors.out" />
	<laneAreaDetector id="82_1" lane="189[1][1]_0" pos="151.55" endPos="171.55" freq="100000" file="detectors.out" />
	<laneAreaDetector id="82_2" lane="187_0" pos="64.3" endPos="84.3" freq="100000" file="detectors.out" />
	<laneAreaDetector id="82_3" lane="189[1][1]_0" pos="0" endPos="20" freq="100000" file="detectors.out" />
	<laneAreaDetector id="82_4" lane="187_0" pos="0" endPos="20" freq="100000" file="detectors.out" />
	<laneAreaDetector id="82_5" lane="189[1][1]_0" pos="0" endPos="-1" freq="100000" file="detectors.out" />
	<laneAreaDetector id="82_6" lane="187_0" pos="0" endPos="-1" freq="100000" file="detectors.out" />
</additional>
